
Compatibility modes selected: hs a


Circuit: ** sch_path:

option SCALE: Scale is set to 0.1 for instance and model parameters
Warning: Model issue on line 2 :
  .model cmosn nmos (level=49 version=3.1 tnom=27 tox=5.7e-9 xj=1e-7 nch=2 ...
unrecognized parameter (xl) - ignored
unrecognized parameter (xw) - ignored
Warning: Model issue on line 5 :
  .model cmosp pmos level=49 version=3.1 tnom=27 tox=5.7e-9 xj=1e-7 nch=4. ...
unrecognized parameter (xl) - ignored
unrecognized parameter (xw) - ignored
binary raw file "/foss/designs-example/test-xschem/simulations/rom8k.raw"
Doing analysis at TEMP = 25.000000 and TNOM = 27.000000

Warning: vlda[4]: no DC value, transient time 0 value used
Warning: vlda[3]: no DC value, transient time 0 value used
Warning: vlda[2]: no DC value, transient time 0 value used
Warning: vlda[1]: no DC value, transient time 0 value used
Warning: vlda[0]: no DC value, transient time 0 value used
Warning: vvcc: no DC value, transient time 0 value used
Warning: vlda[12]: no DC value, transient time 0 value used
Warning: vlda[11]: no DC value, transient time 0 value used
Warning: vlda[9]: no DC value, transient time 0 value used
Warning: vlda[10]: no DC value, transient time 0 value used
Warning: vlda[8]: no DC value, transient time 0 value used
Warning: vldoe: no DC value, transient time 0 value used
Warning: vldcp: no DC value, transient time 0 value used
Warning: vlda[7]: no DC value, transient time 0 value used
Warning: vlden: no DC value, transient time 0 value used
Warning: vlda[6]: no DC value, transient time 0 value used
Warning: vlda[5]: no DC value, transient time 0 value used
No. of Data Columns : 772  
Using transient initial conditions

No. of Data Rows : 3806

Total analysis time (seconds) = 263.61

Total elapsed time (seconds) = 264.164 

Total DRAM available = 298013.145 MB.
DRAM currently available = 34429.332 MB.
Maximum ngspice program size =  133.523 MB.
Current ngspice program size =   56.941 MB.

Shared ngspice pages =    9.195 MB.
Text (code) pages =    5.840 MB.
Stack = 0 bytes.
Library pages =   48.562 MB.

