
Compatibility modes selected: hs a

Warning: m=xx on .subckt line will override multiplier m hierarchy!


Circuit: ** sch_path: /foss/pdks/sky130a/libs.tech/xschem/sky130_tests/test_comparator.sch

option SCALE: Scale is set to 1e-06 for instance and model parameters
Doing analysis at TEMP = 36.720847 and TNOM = 27.000000

Warning: vlatchf: no DC value, transient time 0 value used
Warning: vvss: no DC value, transient time 0 value used
Warning: vminus: no DC value, transient time 0 value used
Warning: vplus: no DC value, transient time 0 value used
Warning: vcal: no DC value, transient time 0 value used
Warning: vvcc: no DC value, transient time 0 value used
Warning: ven: no DC value, transient time 0 value used
Warning: vrstf: no DC value, transient time 0 value used
Using transient initial conditions

No. of Data Rows : 3167
binary raw file "test_comparator.raw"
Reset re-loads circuit ** sch_path: /foss/pdks/sky130a/libs.tech/xschem/sky130_tests/test_comparator.sch

Circuit: ** sch_path: /foss/pdks/sky130a/libs.tech/xschem/sky130_tests/test_comparator.sch

option SCALE: Scale is set to 1e-06 for instance and model parameters
Doing analysis at TEMP = 36.031197 and TNOM = 27.000000

Warning: vlatchf: no DC value, transient time 0 value used
Warning: vvss: no DC value, transient time 0 value used
Warning: vminus: no DC value, transient time 0 value used
Warning: vplus: no DC value, transient time 0 value used
Warning: vcal: no DC value, transient time 0 value used
Warning: vvcc: no DC value, transient time 0 value used
Warning: ven: no DC value, transient time 0 value used
Warning: vrstf: no DC value, transient time 0 value used
Using transient initial conditions

No. of Data Rows : 3166
binary raw file "test_comparator.raw"
Reset re-loads circuit ** sch_path: /foss/pdks/sky130a/libs.tech/xschem/sky130_tests/test_comparator.sch

Circuit: ** sch_path: /foss/pdks/sky130a/libs.tech/xschem/sky130_tests/test_comparator.sch

option SCALE: Scale is set to 1e-06 for instance and model parameters
Doing analysis at TEMP = 21.742787 and TNOM = 27.000000

Warning: vlatchf: no DC value, transient time 0 value used
Warning: vvss: no DC value, transient time 0 value used
Warning: vminus: no DC value, transient time 0 value used
Warning: vplus: no DC value, transient time 0 value used
Warning: vcal: no DC value, transient time 0 value used
Warning: vvcc: no DC value, transient time 0 value used
Warning: ven: no DC value, transient time 0 value used
Warning: vrstf: no DC value, transient time 0 value used
Using transient initial conditions

No. of Data Rows : 3163
binary raw file "test_comparator.raw"
Reset re-loads circuit ** sch_path: /foss/pdks/sky130a/libs.tech/xschem/sky130_tests/test_comparator.sch

Circuit: ** sch_path: /foss/pdks/sky130a/libs.tech/xschem/sky130_tests/test_comparator.sch

option SCALE: Scale is set to 1e-06 for instance and model parameters
Doing analysis at TEMP = 38.285835 and TNOM = 27.000000

Warning: vlatchf: no DC value, transient time 0 value used
Warning: vvss: no DC value, transient time 0 value used
Warning: vminus: no DC value, transient time 0 value used
Warning: vplus: no DC value, transient time 0 value used
Warning: vcal: no DC value, transient time 0 value used
Warning: vvcc: no DC value, transient time 0 value used
Warning: ven: no DC value, transient time 0 value used
Warning: vrstf: no DC value, transient time 0 value used
Using transient initial conditions

No. of Data Rows : 3161
binary raw file "test_comparator.raw"
Reset re-loads circuit ** sch_path: /foss/pdks/sky130a/libs.tech/xschem/sky130_tests/test_comparator.sch

Circuit: ** sch_path: /foss/pdks/sky130a/libs.tech/xschem/sky130_tests/test_comparator.sch

option SCALE: Scale is set to 1e-06 for instance and model parameters
Doing analysis at TEMP = 43.292142 and TNOM = 27.000000

Warning: vlatchf: no DC value, transient time 0 value used
Warning: vvss: no DC value, transient time 0 value used
Warning: vminus: no DC value, transient time 0 value used
Warning: vplus: no DC value, transient time 0 value used
Warning: vcal: no DC value, transient time 0 value used
Warning: vvcc: no DC value, transient time 0 value used
Warning: ven: no DC value, transient time 0 value used
Warning: vrstf: no DC value, transient time 0 value used
Using transient initial conditions

No. of Data Rows : 3171
binary raw file "test_comparator.raw"
Reset re-loads circuit ** sch_path: /foss/pdks/sky130a/libs.tech/xschem/sky130_tests/test_comparator.sch

Circuit: ** sch_path: /foss/pdks/sky130a/libs.tech/xschem/sky130_tests/test_comparator.sch

option SCALE: Scale is set to 1e-06 for instance and model parameters
Doing analysis at TEMP = 57.213540 and TNOM = 27.000000

Warning: vlatchf: no DC value, transient time 0 value used
Warning: vvss: no DC value, transient time 0 value used
Warning: vminus: no DC value, transient time 0 value used
Warning: vplus: no DC value, transient time 0 value used
Warning: vcal: no DC value, transient time 0 value used
Warning: vvcc: no DC value, transient time 0 value used
Warning: ven: no DC value, transient time 0 value used
Warning: vrstf: no DC value, transient time 0 value used
Using transient initial conditions

No. of Data Rows : 3166
binary raw file "test_comparator.raw"
Reset re-loads circuit ** sch_path: /foss/pdks/sky130a/libs.tech/xschem/sky130_tests/test_comparator.sch

Circuit: ** sch_path: /foss/pdks/sky130a/libs.tech/xschem/sky130_tests/test_comparator.sch

option SCALE: Scale is set to 1e-06 for instance and model parameters
Doing analysis at TEMP = 26.986967 and TNOM = 27.000000

Warning: vlatchf: no DC value, transient time 0 value used
Warning: vvss: no DC value, transient time 0 value used
Warning: vminus: no DC value, transient time 0 value used
Warning: vplus: no DC value, transient time 0 value used
Warning: vcal: no DC value, transient time 0 value used
Warning: vvcc: no DC value, transient time 0 value used
Warning: ven: no DC value, transient time 0 value used
Warning: vrstf: no DC value, transient time 0 value used
Using transient initial conditions

No. of Data Rows : 3169
binary raw file "test_comparator.raw"
Reset re-loads circuit ** sch_path: /foss/pdks/sky130a/libs.tech/xschem/sky130_tests/test_comparator.sch

Circuit: ** sch_path: /foss/pdks/sky130a/libs.tech/xschem/sky130_tests/test_comparator.sch

option SCALE: Scale is set to 1e-06 for instance and model parameters
Doing analysis at TEMP = 73.166942 and TNOM = 27.000000

Warning: vlatchf: no DC value, transient time 0 value used
Warning: vvss: no DC value, transient time 0 value used
Warning: vminus: no DC value, transient time 0 value used
Warning: vplus: no DC value, transient time 0 value used
Warning: vcal: no DC value, transient time 0 value used
Warning: vvcc: no DC value, transient time 0 value used
Warning: ven: no DC value, transient time 0 value used
Warning: vrstf: no DC value, transient time 0 value used
Using transient initial conditions

No. of Data Rows : 3168
binary raw file "test_comparator.raw"
Reset re-loads circuit ** sch_path: /foss/pdks/sky130a/libs.tech/xschem/sky130_tests/test_comparator.sch

Circuit: ** sch_path: /foss/pdks/sky130a/libs.tech/xschem/sky130_tests/test_comparator.sch

option SCALE: Scale is set to 1e-06 for instance and model parameters
Doing analysis at TEMP = 63.034869 and TNOM = 27.000000

Warning: vlatchf: no DC value, transient time 0 value used
Warning: vvss: no DC value, transient time 0 value used
Warning: vminus: no DC value, transient time 0 value used
Warning: vplus: no DC value, transient time 0 value used
Warning: vcal: no DC value, transient time 0 value used
Warning: vvcc: no DC value, transient time 0 value used
Warning: ven: no DC value, transient time 0 value used
Warning: vrstf: no DC value, transient time 0 value used
Using transient initial conditions

No. of Data Rows : 3160
binary raw file "test_comparator.raw"
Reset re-loads circuit ** sch_path: /foss/pdks/sky130a/libs.tech/xschem/sky130_tests/test_comparator.sch

Circuit: ** sch_path: /foss/pdks/sky130a/libs.tech/xschem/sky130_tests/test_comparator.sch

option SCALE: Scale is set to 1e-06 for instance and model parameters
Doing analysis at TEMP = 95.352477 and TNOM = 27.000000

Warning: vlatchf: no DC value, transient time 0 value used
Warning: vvss: no DC value, transient time 0 value used
Warning: vminus: no DC value, transient time 0 value used
Warning: vplus: no DC value, transient time 0 value used
Warning: vcal: no DC value, transient time 0 value used
Warning: vvcc: no DC value, transient time 0 value used
Warning: ven: no DC value, transient time 0 value used
Warning: vrstf: no DC value, transient time 0 value used
Using transient initial conditions

No. of Data Rows : 3166
binary raw file "test_comparator.raw"
Reset re-loads circuit ** sch_path: /foss/pdks/sky130a/libs.tech/xschem/sky130_tests/test_comparator.sch

Circuit: ** sch_path: /foss/pdks/sky130a/libs.tech/xschem/sky130_tests/test_comparator.sch

option SCALE: Scale is set to 1e-06 for instance and model parameters
Doing analysis at TEMP = 34.931983 and TNOM = 27.000000

Warning: vlatchf: no DC value, transient time 0 value used
Warning: vvss: no DC value, transient time 0 value used
Warning: vminus: no DC value, transient time 0 value used
Warning: vplus: no DC value, transient time 0 value used
Warning: vcal: no DC value, transient time 0 value used
Warning: vvcc: no DC value, transient time 0 value used
Warning: ven: no DC value, transient time 0 value used
Warning: vrstf: no DC value, transient time 0 value used
Using transient initial conditions

No. of Data Rows : 3166
binary raw file "test_comparator.raw"
Reset re-loads circuit ** sch_path: /foss/pdks/sky130a/libs.tech/xschem/sky130_tests/test_comparator.sch

Circuit: ** sch_path: /foss/pdks/sky130a/libs.tech/xschem/sky130_tests/test_comparator.sch

option SCALE: Scale is set to 1e-06 for instance and model parameters
Doing analysis at TEMP = 90.642528 and TNOM = 27.000000

Warning: vlatchf: no DC value, transient time 0 value used
Warning: vvss: no DC value, transient time 0 value used
Warning: vminus: no DC value, transient time 0 value used
Warning: vplus: no DC value, transient time 0 value used
Warning: vcal: no DC value, transient time 0 value used
Warning: vvcc: no DC value, transient time 0 value used
Warning: ven: no DC value, transient time 0 value used
Warning: vrstf: no DC value, transient time 0 value used
Using transient initial conditions

No. of Data Rows : 3163
binary raw file "test_comparator.raw"
Reset re-loads circuit ** sch_path: /foss/pdks/sky130a/libs.tech/xschem/sky130_tests/test_comparator.sch

Circuit: ** sch_path: /foss/pdks/sky130a/libs.tech/xschem/sky130_tests/test_comparator.sch

option SCALE: Scale is set to 1e-06 for instance and model parameters
Doing analysis at TEMP = -0.957083 and TNOM = 27.000000

Warning: vlatchf: no DC value, transient time 0 value used
Warning: vvss: no DC value, transient time 0 value used
Warning: vminus: no DC value, transient time 0 value used
Warning: vplus: no DC value, transient time 0 value used
Warning: vcal: no DC value, transient time 0 value used
Warning: vvcc: no DC value, transient time 0 value used
Warning: ven: no DC value, transient time 0 value used
Warning: vrstf: no DC value, transient time 0 value used
Using transient initial conditions

No. of Data Rows : 3162
binary raw file "test_comparator.raw"
Reset re-loads circuit ** sch_path: /foss/pdks/sky130a/libs.tech/xschem/sky130_tests/test_comparator.sch

Circuit: ** sch_path: /foss/pdks/sky130a/libs.tech/xschem/sky130_tests/test_comparator.sch

option SCALE: Scale is set to 1e-06 for instance and model parameters
Doing analysis at TEMP = 1.397373 and TNOM = 27.000000

Warning: vlatchf: no DC value, transient time 0 value used
Warning: vvss: no DC value, transient time 0 value used
Warning: vminus: no DC value, transient time 0 value used
Warning: vplus: no DC value, transient time 0 value used
Warning: vcal: no DC value, transient time 0 value used
Warning: vvcc: no DC value, transient time 0 value used
Warning: ven: no DC value, transient time 0 value used
Warning: vrstf: no DC value, transient time 0 value used
Using transient initial conditions

No. of Data Rows : 3166
binary raw file "test_comparator.raw"
Reset re-loads circuit ** sch_path: /foss/pdks/sky130a/libs.tech/xschem/sky130_tests/test_comparator.sch

Circuit: ** sch_path: /foss/pdks/sky130a/libs.tech/xschem/sky130_tests/test_comparator.sch

option SCALE: Scale is set to 1e-06 for instance and model parameters
Doing analysis at TEMP = 19.397284 and TNOM = 27.000000

Warning: vlatchf: no DC value, transient time 0 value used
Warning: vvss: no DC value, transient time 0 value used
Warning: vminus: no DC value, transient time 0 value used
Warning: vplus: no DC value, transient time 0 value used
Warning: vcal: no DC value, transient time 0 value used
Warning: vvcc: no DC value, transient time 0 value used
Warning: ven: no DC value, transient time 0 value used
Warning: vrstf: no DC value, transient time 0 value used
Using transient initial conditions

No. of Data Rows : 3157
binary raw file "test_comparator.raw"
Reset re-loads circuit ** sch_path: /foss/pdks/sky130a/libs.tech/xschem/sky130_tests/test_comparator.sch

Circuit: ** sch_path: /foss/pdks/sky130a/libs.tech/xschem/sky130_tests/test_comparator.sch

option SCALE: Scale is set to 1e-06 for instance and model parameters
Doing analysis at TEMP = 11.157858 and TNOM = 27.000000

Warning: vlatchf: no DC value, transient time 0 value used
Warning: vvss: no DC value, transient time 0 value used
Warning: vminus: no DC value, transient time 0 value used
Warning: vplus: no DC value, transient time 0 value used
Warning: vcal: no DC value, transient time 0 value used
Warning: vvcc: no DC value, transient time 0 value used
Warning: ven: no DC value, transient time 0 value used
Warning: vrstf: no DC value, transient time 0 value used
Using transient initial conditions

No. of Data Rows : 3157
binary raw file "test_comparator.raw"
Reset re-loads circuit ** sch_path: /foss/pdks/sky130a/libs.tech/xschem/sky130_tests/test_comparator.sch

Circuit: ** sch_path: /foss/pdks/sky130a/libs.tech/xschem/sky130_tests/test_comparator.sch

option SCALE: Scale is set to 1e-06 for instance and model parameters
Doing analysis at TEMP = 9.012797 and TNOM = 27.000000

Warning: vlatchf: no DC value, transient time 0 value used
Warning: vvss: no DC value, transient time 0 value used
Warning: vminus: no DC value, transient time 0 value used
Warning: vplus: no DC value, transient time 0 value used
Warning: vcal: no DC value, transient time 0 value used
Warning: vvcc: no DC value, transient time 0 value used
Warning: ven: no DC value, transient time 0 value used
Warning: vrstf: no DC value, transient time 0 value used
Using transient initial conditions

No. of Data Rows : 3169
binary raw file "test_comparator.raw"
Reset re-loads circuit ** sch_path: /foss/pdks/sky130a/libs.tech/xschem/sky130_tests/test_comparator.sch

Circuit: ** sch_path: /foss/pdks/sky130a/libs.tech/xschem/sky130_tests/test_comparator.sch

option SCALE: Scale is set to 1e-06 for instance and model parameters
Doing analysis at TEMP = 26.167800 and TNOM = 27.000000

Warning: vlatchf: no DC value, transient time 0 value used
Warning: vvss: no DC value, transient time 0 value used
Warning: vminus: no DC value, transient time 0 value used
Warning: vplus: no DC value, transient time 0 value used
Warning: vcal: no DC value, transient time 0 value used
Warning: vvcc: no DC value, transient time 0 value used
Warning: ven: no DC value, transient time 0 value used
Warning: vrstf: no DC value, transient time 0 value used
Using transient initial conditions

No. of Data Rows : 3169
binary raw file "test_comparator.raw"
Reset re-loads circuit ** sch_path: /foss/pdks/sky130a/libs.tech/xschem/sky130_tests/test_comparator.sch

Circuit: ** sch_path: /foss/pdks/sky130a/libs.tech/xschem/sky130_tests/test_comparator.sch

option SCALE: Scale is set to 1e-06 for instance and model parameters
Doing analysis at TEMP = 36.521559 and TNOM = 27.000000

Warning: vlatchf: no DC value, transient time 0 value used
Warning: vvss: no DC value, transient time 0 value used
Warning: vminus: no DC value, transient time 0 value used
Warning: vplus: no DC value, transient time 0 value used
Warning: vcal: no DC value, transient time 0 value used
Warning: vvcc: no DC value, transient time 0 value used
Warning: ven: no DC value, transient time 0 value used
Warning: vrstf: no DC value, transient time 0 value used
Using transient initial conditions

No. of Data Rows : 3167
binary raw file "test_comparator.raw"
Reset re-loads circuit ** sch_path: /foss/pdks/sky130a/libs.tech/xschem/sky130_tests/test_comparator.sch

Circuit: ** sch_path: /foss/pdks/sky130a/libs.tech/xschem/sky130_tests/test_comparator.sch

option SCALE: Scale is set to 1e-06 for instance and model parameters
Doing analysis at TEMP = 69.778161 and TNOM = 27.000000

Warning: vlatchf: no DC value, transient time 0 value used
Warning: vvss: no DC value, transient time 0 value used
Warning: vminus: no DC value, transient time 0 value used
Warning: vplus: no DC value, transient time 0 value used
Warning: vcal: no DC value, transient time 0 value used
Warning: vvcc: no DC value, transient time 0 value used
Warning: ven: no DC value, transient time 0 value used
Warning: vrstf: no DC value, transient time 0 value used
Using transient initial conditions

No. of Data Rows : 3163
binary raw file "test_comparator.raw"
Reset re-loads circuit ** sch_path: /foss/pdks/sky130a/libs.tech/xschem/sky130_tests/test_comparator.sch

Circuit: ** sch_path: /foss/pdks/sky130a/libs.tech/xschem/sky130_tests/test_comparator.sch

option SCALE: Scale is set to 1e-06 for instance and model parameters
Doing analysis at TEMP = 33.005319 and TNOM = 27.000000

Warning: vlatchf: no DC value, transient time 0 value used
Warning: vvss: no DC value, transient time 0 value used
Warning: vminus: no DC value, transient time 0 value used
Warning: vplus: no DC value, transient time 0 value used
Warning: vcal: no DC value, transient time 0 value used
Warning: vvcc: no DC value, transient time 0 value used
Warning: ven: no DC value, transient time 0 value used
Warning: vrstf: no DC value, transient time 0 value used
Using transient initial conditions

No. of Data Rows : 3166
binary raw file "test_comparator.raw"
Reset re-loads circuit ** sch_path: /foss/pdks/sky130a/libs.tech/xschem/sky130_tests/test_comparator.sch

Circuit: ** sch_path: /foss/pdks/sky130a/libs.tech/xschem/sky130_tests/test_comparator.sch

option SCALE: Scale is set to 1e-06 for instance and model parameters
Doing analysis at TEMP = 23.724303 and TNOM = 27.000000

Warning: vlatchf: no DC value, transient time 0 value used
Warning: vvss: no DC value, transient time 0 value used
Warning: vminus: no DC value, transient time 0 value used
Warning: vplus: no DC value, transient time 0 value used
Warning: vcal: no DC value, transient time 0 value used
Warning: vvcc: no DC value, transient time 0 value used
Warning: ven: no DC value, transient time 0 value used
Warning: vrstf: no DC value, transient time 0 value used
Using transient initial conditions

No. of Data Rows : 3166
binary raw file "test_comparator.raw"
Reset re-loads circuit ** sch_path: /foss/pdks/sky130a/libs.tech/xschem/sky130_tests/test_comparator.sch

Circuit: ** sch_path: /foss/pdks/sky130a/libs.tech/xschem/sky130_tests/test_comparator.sch

option SCALE: Scale is set to 1e-06 for instance and model parameters
Doing analysis at TEMP = 87.643920 and TNOM = 27.000000

Warning: vlatchf: no DC value, transient time 0 value used
Warning: vvss: no DC value, transient time 0 value used
Warning: vminus: no DC value, transient time 0 value used
Warning: vplus: no DC value, transient time 0 value used
Warning: vcal: no DC value, transient time 0 value used
Warning: vvcc: no DC value, transient time 0 value used
Warning: ven: no DC value, transient time 0 value used
Warning: vrstf: no DC value, transient time 0 value used
Using transient initial conditions

No. of Data Rows : 3166
binary raw file "test_comparator.raw"
Reset re-loads circuit ** sch_path: /foss/pdks/sky130a/libs.tech/xschem/sky130_tests/test_comparator.sch

Circuit: ** sch_path: /foss/pdks/sky130a/libs.tech/xschem/sky130_tests/test_comparator.sch

option SCALE: Scale is set to 1e-06 for instance and model parameters
Doing analysis at TEMP = 12.414142 and TNOM = 27.000000

Warning: vlatchf: no DC value, transient time 0 value used
Warning: vvss: no DC value, transient time 0 value used
Warning: vminus: no DC value, transient time 0 value used
Warning: vplus: no DC value, transient time 0 value used
Warning: vcal: no DC value, transient time 0 value used
Warning: vvcc: no DC value, transient time 0 value used
Warning: ven: no DC value, transient time 0 value used
Warning: vrstf: no DC value, transient time 0 value used
Using transient initial conditions

No. of Data Rows : 3160
binary raw file "test_comparator.raw"
Reset re-loads circuit ** sch_path: /foss/pdks/sky130a/libs.tech/xschem/sky130_tests/test_comparator.sch

Circuit: ** sch_path: /foss/pdks/sky130a/libs.tech/xschem/sky130_tests/test_comparator.sch

option SCALE: Scale is set to 1e-06 for instance and model parameters
Doing analysis at TEMP = 25.491376 and TNOM = 27.000000

Warning: vlatchf: no DC value, transient time 0 value used
Warning: vvss: no DC value, transient time 0 value used
Warning: vminus: no DC value, transient time 0 value used
Warning: vplus: no DC value, transient time 0 value used
Warning: vcal: no DC value, transient time 0 value used
Warning: vvcc: no DC value, transient time 0 value used
Warning: ven: no DC value, transient time 0 value used
Warning: vrstf: no DC value, transient time 0 value used
Using transient initial conditions

No. of Data Rows : 3170
binary raw file "test_comparator.raw"
Reset re-loads circuit ** sch_path: /foss/pdks/sky130a/libs.tech/xschem/sky130_tests/test_comparator.sch

Circuit: ** sch_path: /foss/pdks/sky130a/libs.tech/xschem/sky130_tests/test_comparator.sch

option SCALE: Scale is set to 1e-06 for instance and model parameters
Doing analysis at TEMP = 92.960751 and TNOM = 27.000000

Warning: vlatchf: no DC value, transient time 0 value used
Warning: vvss: no DC value, transient time 0 value used
Warning: vminus: no DC value, transient time 0 value used
Warning: vplus: no DC value, transient time 0 value used
Warning: vcal: no DC value, transient time 0 value used
Warning: vvcc: no DC value, transient time 0 value used
Warning: ven: no DC value, transient time 0 value used
Warning: vrstf: no DC value, transient time 0 value used
Using transient initial conditions

No. of Data Rows : 3166
binary raw file "test_comparator.raw"
Reset re-loads circuit ** sch_path: /foss/pdks/sky130a/libs.tech/xschem/sky130_tests/test_comparator.sch

Circuit: ** sch_path: /foss/pdks/sky130a/libs.tech/xschem/sky130_tests/test_comparator.sch

option SCALE: Scale is set to 1e-06 for instance and model parameters
Doing analysis at TEMP = 24.178354 and TNOM = 27.000000

Warning: vlatchf: no DC value, transient time 0 value used
Warning: vvss: no DC value, transient time 0 value used
Warning: vminus: no DC value, transient time 0 value used
Warning: vplus: no DC value, transient time 0 value used
Warning: vcal: no DC value, transient time 0 value used
Warning: vvcc: no DC value, transient time 0 value used
Warning: ven: no DC value, transient time 0 value used
Warning: vrstf: no DC value, transient time 0 value used
Using transient initial conditions

No. of Data Rows : 3171
binary raw file "test_comparator.raw"
Reset re-loads circuit ** sch_path: /foss/pdks/sky130a/libs.tech/xschem/sky130_tests/test_comparator.sch

Circuit: ** sch_path: /foss/pdks/sky130a/libs.tech/xschem/sky130_tests/test_comparator.sch

option SCALE: Scale is set to 1e-06 for instance and model parameters
Doing analysis at TEMP = -4.844687 and TNOM = 27.000000

Warning: vlatchf: no DC value, transient time 0 value used
Warning: vvss: no DC value, transient time 0 value used
Warning: vminus: no DC value, transient time 0 value used
Warning: vplus: no DC value, transient time 0 value used
Warning: vcal: no DC value, transient time 0 value used
Warning: vvcc: no DC value, transient time 0 value used
Warning: ven: no DC value, transient time 0 value used
Warning: vrstf: no DC value, transient time 0 value used
Using transient initial conditions

No. of Data Rows : 3169
binary raw file "test_comparator.raw"
Reset re-loads circuit ** sch_path: /foss/pdks/sky130a/libs.tech/xschem/sky130_tests/test_comparator.sch

Circuit: ** sch_path: /foss/pdks/sky130a/libs.tech/xschem/sky130_tests/test_comparator.sch

option SCALE: Scale is set to 1e-06 for instance and model parameters
Doing analysis at TEMP = 14.397458 and TNOM = 27.000000

Warning: vlatchf: no DC value, transient time 0 value used
Warning: vvss: no DC value, transient time 0 value used
Warning: vminus: no DC value, transient time 0 value used
Warning: vplus: no DC value, transient time 0 value used
Warning: vcal: no DC value, transient time 0 value used
Warning: vvcc: no DC value, transient time 0 value used
Warning: ven: no DC value, transient time 0 value used
Warning: vrstf: no DC value, transient time 0 value used
Using transient initial conditions

No. of Data Rows : 3166
binary raw file "test_comparator.raw"
Reset re-loads circuit ** sch_path: /foss/pdks/sky130a/libs.tech/xschem/sky130_tests/test_comparator.sch

Circuit: ** sch_path: /foss/pdks/sky130a/libs.tech/xschem/sky130_tests/test_comparator.sch

option SCALE: Scale is set to 1e-06 for instance and model parameters
Doing analysis at TEMP = 34.955580 and TNOM = 27.000000

Warning: vlatchf: no DC value, transient time 0 value used
Warning: vvss: no DC value, transient time 0 value used
Warning: vminus: no DC value, transient time 0 value used
Warning: vplus: no DC value, transient time 0 value used
Warning: vcal: no DC value, transient time 0 value used
Warning: vvcc: no DC value, transient time 0 value used
Warning: ven: no DC value, transient time 0 value used
Warning: vrstf: no DC value, transient time 0 value used
Using transient initial conditions

No. of Data Rows : 3157
binary raw file "test_comparator.raw"
Reset re-loads circuit ** sch_path: /foss/pdks/sky130a/libs.tech/xschem/sky130_tests/test_comparator.sch

Circuit: ** sch_path: /foss/pdks/sky130a/libs.tech/xschem/sky130_tests/test_comparator.sch

option SCALE: Scale is set to 1e-06 for instance and model parameters
Doing analysis at TEMP = 64.529241 and TNOM = 27.000000

Warning: vlatchf: no DC value, transient time 0 value used
Warning: vvss: no DC value, transient time 0 value used
Warning: vminus: no DC value, transient time 0 value used
Warning: vplus: no DC value, transient time 0 value used
Warning: vcal: no DC value, transient time 0 value used
Warning: vvcc: no DC value, transient time 0 value used
Warning: ven: no DC value, transient time 0 value used
Warning: vrstf: no DC value, transient time 0 value used
Using transient initial conditions

No. of Data Rows : 3157
binary raw file "test_comparator.raw"
Reset re-loads circuit ** sch_path: /foss/pdks/sky130a/libs.tech/xschem/sky130_tests/test_comparator.sch

Circuit: ** sch_path: /foss/pdks/sky130a/libs.tech/xschem/sky130_tests/test_comparator.sch

option SCALE: Scale is set to 1e-06 for instance and model parameters
Doing analysis at TEMP = 12.688037 and TNOM = 27.000000

Warning: vlatchf: no DC value, transient time 0 value used
Warning: vvss: no DC value, transient time 0 value used
Warning: vminus: no DC value, transient time 0 value used
Warning: vplus: no DC value, transient time 0 value used
Warning: vcal: no DC value, transient time 0 value used
Warning: vvcc: no DC value, transient time 0 value used
Warning: ven: no DC value, transient time 0 value used
Warning: vrstf: no DC value, transient time 0 value used
Using transient initial conditions

No. of Data Rows : 3163
binary raw file "test_comparator.raw"
Reset re-loads circuit ** sch_path: /foss/pdks/sky130a/libs.tech/xschem/sky130_tests/test_comparator.sch

Circuit: ** sch_path: /foss/pdks/sky130a/libs.tech/xschem/sky130_tests/test_comparator.sch

option SCALE: Scale is set to 1e-06 for instance and model parameters
Doing analysis at TEMP = 40.468395 and TNOM = 27.000000

Warning: vlatchf: no DC value, transient time 0 value used
Warning: vvss: no DC value, transient time 0 value used
Warning: vminus: no DC value, transient time 0 value used
Warning: vplus: no DC value, transient time 0 value used
Warning: vcal: no DC value, transient time 0 value used
Warning: vvcc: no DC value, transient time 0 value used
Warning: ven: no DC value, transient time 0 value used
Warning: vrstf: no DC value, transient time 0 value used
Using transient initial conditions

No. of Data Rows : 3160
binary raw file "test_comparator.raw"
Reset re-loads circuit ** sch_path: /foss/pdks/sky130a/libs.tech/xschem/sky130_tests/test_comparator.sch

Circuit: ** sch_path: /foss/pdks/sky130a/libs.tech/xschem/sky130_tests/test_comparator.sch

option SCALE: Scale is set to 1e-06 for instance and model parameters
Doing analysis at TEMP = 44.268671 and TNOM = 27.000000

Warning: vlatchf: no DC value, transient time 0 value used
Warning: vvss: no DC value, transient time 0 value used
Warning: vminus: no DC value, transient time 0 value used
Warning: vplus: no DC value, transient time 0 value used
Warning: vcal: no DC value, transient time 0 value used
Warning: vvcc: no DC value, transient time 0 value used
Warning: ven: no DC value, transient time 0 value used
Warning: vrstf: no DC value, transient time 0 value used
Using transient initial conditions

No. of Data Rows : 3163
binary raw file "test_comparator.raw"
Reset re-loads circuit ** sch_path: /foss/pdks/sky130a/libs.tech/xschem/sky130_tests/test_comparator.sch

Circuit: ** sch_path: /foss/pdks/sky130a/libs.tech/xschem/sky130_tests/test_comparator.sch

option SCALE: Scale is set to 1e-06 for instance and model parameters
Doing analysis at TEMP = 88.274994 and TNOM = 27.000000

Warning: vlatchf: no DC value, transient time 0 value used
Warning: vvss: no DC value, transient time 0 value used
Warning: vminus: no DC value, transient time 0 value used
Warning: vplus: no DC value, transient time 0 value used
Warning: vcal: no DC value, transient time 0 value used
Warning: vvcc: no DC value, transient time 0 value used
Warning: ven: no DC value, transient time 0 value used
Warning: vrstf: no DC value, transient time 0 value used
Using transient initial conditions

No. of Data Rows : 3168
binary raw file "test_comparator.raw"
Reset re-loads circuit ** sch_path: /foss/pdks/sky130a/libs.tech/xschem/sky130_tests/test_comparator.sch

Circuit: ** sch_path: /foss/pdks/sky130a/libs.tech/xschem/sky130_tests/test_comparator.sch

option SCALE: Scale is set to 1e-06 for instance and model parameters
Doing analysis at TEMP = 15.376875 and TNOM = 27.000000

Warning: vlatchf: no DC value, transient time 0 value used
Warning: vvss: no DC value, transient time 0 value used
Warning: vminus: no DC value, transient time 0 value used
Warning: vplus: no DC value, transient time 0 value used
Warning: vcal: no DC value, transient time 0 value used
Warning: vvcc: no DC value, transient time 0 value used
Warning: ven: no DC value, transient time 0 value used
Warning: vrstf: no DC value, transient time 0 value used
Using transient initial conditions

No. of Data Rows : 3166
binary raw file "test_comparator.raw"
Reset re-loads circuit ** sch_path: /foss/pdks/sky130a/libs.tech/xschem/sky130_tests/test_comparator.sch

Circuit: ** sch_path: /foss/pdks/sky130a/libs.tech/xschem/sky130_tests/test_comparator.sch

option SCALE: Scale is set to 1e-06 for instance and model parameters
Doing analysis at TEMP = -6.971499 and TNOM = 27.000000

Warning: vlatchf: no DC value, transient time 0 value used
Warning: vvss: no DC value, transient time 0 value used
Warning: vminus: no DC value, transient time 0 value used
Warning: vplus: no DC value, transient time 0 value used
Warning: vcal: no DC value, transient time 0 value used
Warning: vvcc: no DC value, transient time 0 value used
Warning: ven: no DC value, transient time 0 value used
Warning: vrstf: no DC value, transient time 0 value used
Using transient initial conditions

No. of Data Rows : 3163
binary raw file "test_comparator.raw"
Reset re-loads circuit ** sch_path: /foss/pdks/sky130a/libs.tech/xschem/sky130_tests/test_comparator.sch

Circuit: ** sch_path: /foss/pdks/sky130a/libs.tech/xschem/sky130_tests/test_comparator.sch

option SCALE: Scale is set to 1e-06 for instance and model parameters
Doing analysis at TEMP = 23.679182 and TNOM = 27.000000

Warning: vlatchf: no DC value, transient time 0 value used
Warning: vvss: no DC value, transient time 0 value used
Warning: vminus: no DC value, transient time 0 value used
Warning: vplus: no DC value, transient time 0 value used
Warning: vcal: no DC value, transient time 0 value used
Warning: vvcc: no DC value, transient time 0 value used
Warning: ven: no DC value, transient time 0 value used
Warning: vrstf: no DC value, transient time 0 value used
Using transient initial conditions

No. of Data Rows : 3171
binary raw file "test_comparator.raw"
Reset re-loads circuit ** sch_path: /foss/pdks/sky130a/libs.tech/xschem/sky130_tests/test_comparator.sch

Circuit: ** sch_path: /foss/pdks/sky130a/libs.tech/xschem/sky130_tests/test_comparator.sch

option SCALE: Scale is set to 1e-06 for instance and model parameters
Doing analysis at TEMP = 8.788013 and TNOM = 27.000000

Warning: vlatchf: no DC value, transient time 0 value used
Warning: vvss: no DC value, transient time 0 value used
Warning: vminus: no DC value, transient time 0 value used
Warning: vplus: no DC value, transient time 0 value used
Warning: vcal: no DC value, transient time 0 value used
Warning: vvcc: no DC value, transient time 0 value used
Warning: ven: no DC value, transient time 0 value used
Warning: vrstf: no DC value, transient time 0 value used
Using transient initial conditions

No. of Data Rows : 3166
binary raw file "test_comparator.raw"
Reset re-loads circuit ** sch_path: /foss/pdks/sky130a/libs.tech/xschem/sky130_tests/test_comparator.sch

Circuit: ** sch_path: /foss/pdks/sky130a/libs.tech/xschem/sky130_tests/test_comparator.sch

option SCALE: Scale is set to 1e-06 for instance and model parameters
Doing analysis at TEMP = 66.376917 and TNOM = 27.000000

Warning: vlatchf: no DC value, transient time 0 value used
Warning: vvss: no DC value, transient time 0 value used
Warning: vminus: no DC value, transient time 0 value used
Warning: vplus: no DC value, transient time 0 value used
Warning: vcal: no DC value, transient time 0 value used
Warning: vvcc: no DC value, transient time 0 value used
Warning: ven: no DC value, transient time 0 value used
Warning: vrstf: no DC value, transient time 0 value used
Using transient initial conditions

No. of Data Rows : 3166
binary raw file "test_comparator.raw"
binary raw file "/foss/designs-example/test-xschem/simulations/test_comparator.raw"
Doing analysis at TEMP = 66.376917 and TNOM = 27.000000

Warning: vlatchf: no DC value, transient time 0 value used
Warning: vvss: no DC value, transient time 0 value used
Warning: vminus: no DC value, transient time 0 value used
Warning: vplus: no DC value, transient time 0 value used
Warning: vcal: no DC value, transient time 0 value used
Warning: vvcc: no DC value, transient time 0 value used
Warning: ven: no DC value, transient time 0 value used
Warning: vrstf: no DC value, transient time 0 value used

Total analysis time (seconds) = 0.545

Total elapsed time (seconds) = 60.299 

Total DRAM available = 298013.145 MB.
DRAM currently available = 34481.086 MB.
Maximum ngspice program size =  747.582 MB.
Current ngspice program size =  663.137 MB.

Shared ngspice pages =    9.227 MB.
Text (code) pages =    5.840 MB.
Stack = 0 bytes.
Library pages =  662.617 MB.

